FoamFile
{
    version     2.0;
    format      ascii;
    class       dictionary;
    object      snappyHexMeshDict;
}

castellatedMesh  true;
snap             true;
addLayers        false;

geometry
{
    buildings
    {
        type triSurfaceMesh;
        file "buildings.stl";
    }
}

castellatedMeshControls
{
    maxLocalCells        500000;
    maxGlobalCells       1000000;
    minRefinementCells   10;
    nCellsBetweenLevels  1;
    features             ();

    refinementSurfaces
    {
        buildings
        {
            level (1 2);
            patchInfo { type wall; inGroups (wall); }
        }
    }

    refinementRegions {}

    resolveFeatureAngle 30;
    locationInMesh (0 -40 5);
    allowFreeStandingZoneFaces false;
}

snapControls
{
    nSmoothPatch        3;
    tolerance           2.0;
    nSolveIter          30;
    nRelaxIter          5;
    nFeatureSnapIter    10;
    implicitFeatureSnap false;
    explicitFeatureSnap false;
    multiRegionFeatureSnap false;
}

addLayersControls
{
    addLayers false;
    layers {}
    expansionRatio 1.2;
    finalLayerThickness 0.3;
    minThickness 0.1;
    nGrow 0;
    featureAngle 60;
    nRelaxIter 3;
    nSmoothSurfaceNormals 1;
    nSmoothNormals 3;
    nSmoothThickness 10;
    maxFaceThicknessRatio 0.5;
    maxThicknessToMedialRatio 0.3;
    minMedianAxisAngle 90;
    nBufferCellsNoExtrude 0;
    nLayerIter 50;
}

meshQualityControls
{
    maxNonOrtho         65;
    maxBoundarySkewness 20;
    maxInternalSkewness 4;
    maxConcave          80;
    minVol              1e-13;
    minTetQuality       1e-30;
    minArea             -1;
    minTwist            0.02;
    minDeterminant      0.001;
    minFaceWeight       0.05;
    minVolRatio         0.01;
    minTriangleTwist    -1;
    nSmoothScale        4;
    errorReduction      0.75;
    relaxed
    {
        maxNonOrtho 75;
    }
}

mergeTolerance 1e-6;
